
     RDKit          3D

 12 12  0  0  0  0  0  0  0  0999 V2000
   16.0364  -30.0366   -7.6034 O   0  0  0  0  0  0  0  0  0  0  0  0
   15.5558  -30.6901   -8.7533 C   0  0  0  0  0  0  0  0  0  0  0  0
   14.7140  -31.9174   -8.3480 C   0  0  0  0  0  0  0  0  0  0  0  0
   14.7978  -29.6895   -9.6626 C   0  0  0  0  0  0  0  0  0  0  0  0
   15.5729  -33.1214   -7.9299 C   0  0  0  0  0  0  0  0  0  0  0  0
   13.4903  -29.0238   -9.1359 C   0  0  0  0  0  0  0  0  0  0  0  0
   13.6125  -28.4682   -7.7126 C   0  0  0  0  0  0  0  0  0  0  0  0
   12.2268  -29.8965   -9.2811 C   0  0  0  0  0  0  0  0  0  0  0  0
   16.3802  -32.8370   -6.6539 C   0  0  0  0  0  0  0  0  0  0  0  0
   12.0420  -30.2888  -10.6166 O   0  0  0  0  0  0  0  0  0  0  0  0
   17.8745  -32.6184   -6.8419 C   0  0  0  0  0  0  0  0  0  0  0  0
   17.3644  -33.9347   -6.2811 C   0  0  0  0  0  0  0  0  0  0  0  0
  2  1  1  0
  3  2  1  0
  4  2  1  0
  5  3  1  0
  6  4  1  0
  7  6  1  0
  8  6  1  0
  9  5  1  0
 10  8  1  0
 11  9  1  0
 12  9  1  0
 12 11  1  0
M  END
$$$$
