
     RDKit          3D

 12 13  0  0  0  0  0  0  0  0999 V2000
   14.2888  -30.6966  -13.4086 N   0  0  0  0  0  0  0  0  0  0  0  0
   14.1648  -31.4210  -12.1141 C   0  0  0  0  0  0  0  0  0  0  0  0
   16.7424  -28.5903  -15.2106 N   0  0  0  0  0  0  0  0  0  0  0  0
   15.4966  -29.8696  -13.5358 C   0  0  0  0  0  0  0  0  0  0  0  0
   15.1937  -28.4397  -13.3298 N   0  0  0  0  0  0  0  0  0  0  0  0
   14.6626  -32.1289  -13.3008 C   0  0  0  0  0  0  0  0  0  0  0  0
   15.4380  -28.9770  -14.6862 C   0  0  0  0  0  0  0  0  0  0  0  0
   13.6676  -33.0438  -14.0306 C   0  0  0  0  0  0  0  0  0  0  0  0
   13.4802  -32.6387  -15.4729 C   0  0  0  0  0  0  0  0  0  0  0  0
   14.4174  -32.7550  -16.4300 C   0  0  0  0  0  0  0  0  0  0  0  0
   15.8063  -33.2732  -16.1929 C   0  0  0  0  0  0  0  0  0  0  0  0
   15.4072  -31.0967  -10.8553 Cl  0  0  0  0  0  0  0  0  0  0  0  0
  2  1  1  0
  4  1  1  0
  5  4  1  0
  6  1  1  0
  6  2  1  0
  7  3  1  0
  7  4  1  0
  7  5  1  0
  8  6  1  0
  9  8  1  0
 10  9  2  3
 11 10  1  0
 12  2  1  0
M  END
$$$$
