
     RDKit          3D

 12 15  0  0  0  0  0  0  0  0999 V2000
   22.1499  -22.5277  -18.9154 N   0  0  0  0  0  0  0  0  0  0  0  0
   22.3613  -22.0132  -20.2753 C   0  0  0  0  0  0  0  0  0  0  0  0
   21.6733  -20.7091  -20.2835 N   0  0  0  0  0  0  0  0  0  0  0  0
   20.2733  -20.6240  -19.9684 C   0  0  0  0  0  0  0  0  0  0  0  0
   23.8285  -21.6888  -20.2033 C   0  0  0  0  0  0  0  0  0  0  0  0
   23.9843  -20.9251  -18.8758 C   0  0  0  0  0  0  0  0  0  0  0  0
   23.2971  -23.0259  -19.6863 C   0  0  0  0  0  0  0  0  0  0  0  0
   23.2316  -21.9906  -18.0481 C   0  0  0  0  0  0  0  0  0  0  0  0
   24.0945  -23.1403  -18.3853 C   0  0  0  0  0  0  0  0  0  0  0  0
   19.6050  -19.4580  -19.9208 C   0  0  0  0  0  0  0  0  0  0  0  0
   18.1422  -19.4796  -19.5707 C   0  0  0  0  0  0  0  0  0  0  0  0
   20.2876  -18.1415  -20.1870 C   0  0  0  0  0  0  0  0  0  0  0  0
  2  1  1  0
  3  2  1  0
  4  3  1  0
  5  2  1  0
  6  5  1  0
  7  1  1  0
  7  2  1  0
  7  5  1  0
  8  1  1  0
  8  6  1  0
  9  7  1  0
  9  8  1  0
 10  4  2  3
 11 10  1  0
 12 10  1  0
M  END
$$$$
