
     RDKit          3D

 12 13  0  0  0  0  0  0  0  0999 V2000
   12.9500  -18.3030  -13.5008 C   0  0  0  0  0  0  0  0  0  0  0  0
   11.1712  -20.2259  -13.4182 C   0  0  0  0  0  0  0  0  0  0  0  0
   13.7129  -15.8810  -14.0195 C   0  0  0  0  0  0  0  0  0  0  0  0
   15.2339  -16.0796  -14.1836 C   0  0  0  0  0  0  0  0  0  0  0  0
   10.4664  -18.8301  -13.3232 C   0  0  0  0  0  0  0  0  0  0  0  0
   11.8327  -19.0423  -12.7320 C   0  0  0  0  0  0  0  0  0  0  0  0
   14.2464  -19.0476  -13.3199 C   0  0  0  0  0  0  0  0  0  0  0  0
   16.9677  -17.0248  -15.5634 O   0  0  0  0  0  0  0  0  0  0  0  0
   15.5892  -16.7791  -15.5013 C   0  0  0  0  0  0  0  0  0  0  0  0
   14.7311  -19.2124  -12.2109 O   0  0  0  0  0  0  0  0  0  0  0  0
   13.0572  -16.8404  -13.0067 C   0  0  0  0  0  0  0  0  0  0  0  0
   10.0296  -19.8478  -14.3340 C   0  0  0  0  0  0  0  0  0  0  0  0
  4  3  1  0
  5  2  1  0
  6  1  1  0
  6  2  1  0
  6  5  1  0
  7  1  1  0
  9  4  1  0
  9  8  1  0
 10  7  2  0
 11  1  1  0
 11  3  1  0
 12  2  1  0
 12  5  1  0
M  END
$$$$
