
     RDKit          3D

 12 12  0  0  0  0  0  0  0  0999 V2000
   20.1067  -25.0241   -6.5574 O   0  0  0  0  0  0  0  0  0  0  0  0
   22.1392  -26.3130   -6.0778 C   0  0  0  0  0  0  0  0  0  0  0  0
   21.2273  -24.5638   -4.4778 C   0  0  0  0  0  0  0  0  0  0  0  0
   22.4765  -26.8288   -7.5237 C   0  0  0  0  0  0  0  0  0  0  0  0
   23.0119  -25.6560   -8.4082 C   0  0  0  0  0  0  0  0  0  0  0  0
   23.5603  -26.0569   -9.7933 C   0  0  0  0  0  0  0  0  0  0  0  0
   21.2259  -27.4880   -8.1658 C   0  0  0  0  0  0  0  0  0  0  0  0
   21.3714  -24.9699   -5.9499 C   0  0  0  0  0  0  0  0  0  0  0  0
   22.4837  -26.2036  -10.8801 C   0  0  0  0  0  0  0  0  0  0  0  0
   23.5652  -27.9240   -7.3540 C   0  0  0  0  0  0  0  0  0  0  0  0
   21.4899  -27.9483   -9.4814 O   0  0  0  0  0  0  0  0  0  0  0  0
   21.2131  -26.9479  -10.4451 C   0  0  0  0  0  0  0  0  0  0  0  0
  4  2  1  0
  5  4  1  0
  6  5  1  0
  7  4  1  0
  8  1  1  0
  8  2  1  0
  8  3  1  0
  9  6  1  0
 10  4  1  0
 11  7  1  0
 12  9  1  0
 12 11  1  0
M  END
$$$$
