
     RDKit          3D

 13 15  0  0  0  0  0  0  0  0999 V2000
   20.0502  -18.0331    0.8562 O   0  0  0  0  0  0  0  0  0  0  0  0
   19.8248  -17.9410    2.2372 C   0  0  0  0  0  0  0  0  0  0  0  0
   19.9972  -16.6156    2.6886 O   0  0  0  0  0  0  0  0  0  0  0  0
   20.5585  -18.9754    3.0849 C   0  0  0  0  0  0  0  0  0  0  0  0
   21.5530  -19.9006    2.3698 C   0  0  0  0  0  0  0  0  0  0  0  0
   19.2227  -19.6145    3.4926 C   0  0  0  0  0  0  0  0  0  0  0  0
   18.1476  -20.0166    2.4895 C   0  0  0  0  0  0  0  0  0  0  0  0
   16.8014  -20.4367    3.1169 C   0  0  0  0  0  0  0  0  0  0  0  0
   15.7662  -20.5375    2.0313 C   0  0  0  0  0  0  0  0  0  0  0  0
   16.0834  -21.1149    0.8644 C   0  0  0  0  0  0  0  0  0  0  0  0
   18.5586  -20.7429    1.1780 C   0  0  0  0  0  0  0  0  0  0  0  0
   18.4706  -18.5343    2.6474 C   0  0  0  0  0  0  0  0  0  0  0  0
   17.4586  -21.6976    0.6682 C   0  0  0  0  0  0  0  0  0  0  0  0
  2  1  1  0
  3  2  1  0
  4  2  1  0
  5  4  1  0
  6  4  1  0
  7  6  1  0
  8  7  1  0
  9  8  1  0
 10  9  2  0
 11  7  1  0
 12  2  1  0
 12  6  1  0
 12  7  1  0
 13 10  1  0
 13 11  1  0
M  END
$$$$
