
     RDKit          3D

 13 14  0  0  0  0  0  0  0  0999 V2000
   27.8575  -29.6834  -14.2438 O   0  0  0  0  0  0  0  0  0  0  0  0
   26.5354  -29.9797  -14.6288 C   0  0  0  0  0  0  0  0  0  0  0  0
   26.2786  -29.4707  -15.9084 O   0  0  0  0  0  0  0  0  0  0  0  0
   26.8348  -28.9880  -13.5553 C   0  0  0  0  0  0  0  0  0  0  0  0
   28.2015  -26.8577  -14.1137 C   0  0  0  0  0  0  0  0  0  0  0  0
   29.1464  -27.0899  -12.9557 C   0  0  0  0  0  0  0  0  0  0  0  0
   26.8030  -27.4832  -13.8986 C   0  0  0  0  0  0  0  0  0  0  0  0
   28.8772  -26.6459  -11.7104 C   0  0  0  0  0  0  0  0  0  0  0  0
   29.8565  -26.8068  -10.5787 C   0  0  0  0  0  0  0  0  0  0  0  0
   29.8946  -28.2393  -10.0178 C   0  0  0  0  0  0  0  0  0  0  0  0
   30.6758  -29.1964  -10.9351 C   0  0  0  0  0  0  0  0  0  0  0  0
   30.6487  -30.6628  -10.5158 C   0  0  0  0  0  0  0  0  0  0  0  0
   29.8319  -30.1970  -11.7163 C   0  0  0  0  0  0  0  0  0  0  0  0
  2  1  1  0
  3  2  1  0
  4  1  1  0
  4  2  1  0
  6  5  1  0
  7  4  1  0
  7  5  1  0
  8  6  2  3
  9  8  1  0
 10  9  1  0
 11 10  1  0
 12 11  1  0
 13 11  1  0
 13 12  1  0
M  END
$$$$
