
     RDKit          3D

 13 16  0  0  0  0  0  0  0  0999 V2000
   19.4631  -34.4331   -8.7319 N   0  0  0  0  0  0  0  0  0  0  0  0
   20.6223  -34.6525   -8.1863 C   0  0  0  0  0  0  0  0  0  0  0  0
   18.4325  -35.4428   -8.9587 C   0  0  0  0  0  0  0  0  0  0  0  0
   21.0311  -35.9448   -7.8386 O   0  0  0  0  0  0  0  0  0  0  0  0
   21.4879  -33.5448   -7.9207 N   0  0  0  0  0  0  0  0  0  0  0  0
   22.7795  -33.7418   -7.2657 C   0  0  0  0  0  0  0  0  0  0  0  0
   23.7779  -32.8761   -8.0009 C   0  0  0  0  0  0  0  0  0  0  0  0
   24.7524  -32.2463   -7.0435 C   0  0  0  0  0  0  0  0  0  0  0  0
   23.8410  -34.3846   -8.1435 C   0  0  0  0  0  0  0  0  0  0  0  0
   18.9118  -36.5502   -9.9021 C   0  0  0  0  0  0  0  0  0  0  0  0
   19.8009  -37.5709   -9.1853 C   0  0  0  0  0  0  0  0  0  0  0  0
   23.3232  -32.5003   -6.5800 C   0  0  0  0  0  0  0  0  0  0  0  0
   21.1591  -36.9890   -8.7995 C   0  0  0  0  0  0  0  0  0  0  0  0
  2  1  2  0
  3  1  1  0
  4  2  1  0
  5  2  1  0
  6  5  1  0
  7  6  1  0
  8  7  1  0
  9  6  1  0
  9  7  1  0
 10  3  1  0
 11 10  1  0
 12  6  1  0
 12  7  1  0
 12  8  1  0
 13  4  1  0
 13 11  1  0
M  END
$$$$
