
     RDKit          3D

 13 16  0  0  0  0  0  0  0  0999 V2000
   21.3459  -17.8714  -17.2450 C   0  0  0  0  0  0  0  0  0  0  0  0
   22.7044  -17.6846  -17.4001 F   0  0  0  0  0  0  0  0  0  0  0  0
   20.8166  -17.7185  -15.8358 C   0  0  0  0  0  0  0  0  0  0  0  0
   20.9705  -18.9636  -14.9431 C   0  0  0  0  0  0  0  0  0  0  0  0
   19.7133  -19.7194  -14.3794 C   0  0  0  0  0  0  0  0  0  0  0  0
   22.3517  -19.3619  -14.2772 C   0  0  0  0  0  0  0  0  0  0  0  0
   22.1654  -19.0892  -12.7701 C   0  0  0  0  0  0  0  0  0  0  0  0
   18.4426  -18.8748  -14.2742 C   0  0  0  0  0  0  0  0  0  0  0  0
   20.9936  -19.1185  -16.4746 C   0  0  0  0  0  0  0  0  0  0  0  0
   21.4067  -17.8516  -12.2688 C   0  0  0  0  0  0  0  0  0  0  0  0
   23.4559  -18.6584  -13.3818 C   0  0  0  0  0  0  0  0  0  0  0  0
   24.5883  -19.6112  -12.9572 C   0  0  0  0  0  0  0  0  0  0  0  0
   23.4575  -18.4856  -14.8644 C   0  0  0  0  0  0  0  0  0  0  0  0
  2  1  1  0
  3  1  1  0
  4  3  1  0
  5  4  1  0
  6  4  1  0
  7  6  1  0
  8  5  1  0
  9  1  1  0
  9  3  1  0
  9  4  1  0
 10  7  1  0
 11  6  1  0
 11  7  1  0
 12 11  1  0
 13  6  1  0
 13 11  1  0
M  END
$$$$
