
     RDKit          3D

 15 20  0  0  0  0  0  0  0  0999 V2000
   22.8699  -20.9528  -12.7119 C   0  0  0  0  0  0  0  0  0  0  0  0
   24.3267  -21.4859  -12.7318 C   0  0  0  0  0  0  0  0  0  0  0  0
   25.2871  -20.5427  -11.9428 C   0  0  0  0  0  0  0  0  0  0  0  0
   22.7564  -19.4366  -13.0002 C   0  0  0  0  0  0  0  0  0  0  0  0
   23.1393  -19.0450  -14.4484 C   0  0  0  0  0  0  0  0  0  0  0  0
   24.6463  -19.2141  -14.7617 C   0  0  0  0  0  0  0  0  0  0  0  0
   24.9263  -20.6869  -15.1236 C   0  0  0  0  0  0  0  0  0  0  0  0
   25.0822  -19.0416  -12.2221 C   0  0  0  0  0  0  0  0  0  0  0  0
   26.1135  -22.3212  -14.3825 N   0  0  0  0  0  0  0  0  0  0  0  0
   26.3752  -21.0870  -15.1282 C   0  0  0  0  0  0  0  0  0  0  0  0
   24.7337  -21.8559  -14.1881 C   0  0  0  0  0  0  0  0  0  0  0  0
   23.6174  -18.6563  -12.0065 C   0  0  0  0  0  0  0  0  0  0  0  0
   25.5372  -18.6323  -13.6345 C   0  0  0  0  0  0  0  0  0  0  0  0
   25.5469  -21.0420  -16.4583 C   0  0  0  0  0  0  0  0  0  0  0  0
   27.0295  -21.3152  -16.4612 C   0  0  0  0  0  0  0  0  0  0  0  0
  2  1  1  0
  3  2  1  0
  4  1  1  0
  5  4  1  0
  6  5  1  0
  7  6  1  0
  8  3  1  0
 10  7  1  0
 10  9  1  0
 11  2  1  0
 11  7  1  0
 11  9  1  0
 12  4  1  0
 12  8  1  0
 13  6  1  0
 13  8  1  0
 14  7  1  0
 14 10  1  0
 15 10  1  0
 15 14  1  0
M  END
$$$$
