
     RDKit          3D

 15 15  0  0  0  0  0  0  0  0999 V2000
   16.6839  -24.3587  -15.8871 O   0  0  0  0  0  0  0  0  0  0  0  0
   16.8536  -25.7513  -15.8538 C   0  0  0  0  0  0  0  0  0  0  0  0
   17.9799  -26.0830  -16.6251 O   0  0  0  0  0  0  0  0  0  0  0  0
   15.6015  -26.4221  -16.4351 C   0  0  0  0  0  0  0  0  0  0  0  0
   15.6219  -27.9371  -16.1674 C   0  0  0  0  0  0  0  0  0  0  0  0
   14.6049  -28.8484  -16.8660 C   0  0  0  0  0  0  0  0  0  0  0  0
   13.5866  -28.2743  -17.8771 C   0  0  0  0  0  0  0  0  0  0  0  0
   12.1658  -28.7552  -17.5512 C   0  0  0  0  0  0  0  0  0  0  0  0
   16.0518  -28.7878  -17.3549 C   0  0  0  0  0  0  0  0  0  0  0  0
   11.6079  -28.0913  -16.2805 C   0  0  0  0  0  0  0  0  0  0  0  0
   10.1996  -28.6017  -15.9242 C   0  0  0  0  0  0  0  0  0  0  0  0
   10.1557  -30.0330  -15.3532 C   0  0  0  0  0  0  0  0  0  0  0  0
   11.0629  -28.0819  -12.5972 C   0  0  0  0  0  0  0  0  0  0  0  0
   10.3095  -29.4018  -12.8408 C   0  0  0  0  0  0  0  0  0  0  0  0
   10.8878  -30.2317  -14.0093 C   0  0  0  0  0  0  0  0  0  0  0  0
  2  1  1  0
  3  2  1  0
  4  2  1  0
  5  4  1  0
  6  5  1  0
  7  6  1  0
  8  7  1  0
  9  5  1  0
  9  6  1  0
 10  8  1  0
 11 10  1  0
 12 11  1  0
 14 13  1  0
 15 12  1  0
 15 14  1  0
M  END
$$$$
