
     RDKit          3D

 14 15  0  0  0  0  0  0  0  0999 V2000
   26.0524  -15.1305    3.2311 C   0  0  0  0  0  0  0  0  0  0  0  0
   27.4575  -15.4742    3.7144 C   0  0  0  0  0  0  0  0  0  0  0  0
   27.2576  -17.7999    5.0795 C   0  0  0  0  0  0  0  0  0  0  0  0
   25.7838  -15.7673    5.7608 C   0  0  0  0  0  0  0  0  0  0  0  0
   25.9988  -14.3161    6.2250 C   0  0  0  0  0  0  0  0  0  0  0  0
   25.4496  -16.0542    4.2970 C   0  0  0  0  0  0  0  0  0  0  0  0
   26.8658  -16.3228    4.8461 C   0  0  0  0  0  0  0  0  0  0  0  0
   24.5891  -14.3359   -0.5951 As  0  0  0  0  0  3  0  0  0  0  0  0
   25.7767  -15.5204    1.7647 C   0  0  0  0  0  0  0  0  0  0  0  0
   26.6407  -20.4368    3.9247 C   0  0  0  0  0  0  0  0  0  0  0  0
   27.5177  -18.8323    3.5448 P   0  0  0  0  0  0  0  0  0  0  0  0
   25.3046  -14.1069    7.4003 F   0  0  0  0  0  0  0  0  0  0  0  0
   24.4257  -14.9812    1.2705 C   0  0  0  0  0  0  0  0  0  0  0  0
   22.2798  -14.5332   -1.1410 Br  0  0  0  0  0  0  0  0  0  0  0  0
  2  1  1  0
  5  4  1  0
  6  1  1  0
  6  4  1  0
  7  2  1  0
  7  3  1  0
  7  4  1  0
  7  6  1  0
  9  1  1  0
 11  3  1  0
 11 10  1  0
 12  5  1  0
 13  8  1  0
 13  9  1  0
 14  8  1  0
M  END
$$$$
