
     RDKit          3D

 16 19  0  0  0  0  0  0  0  0999 V2000
   13.3663  -17.5926   -1.4269 C   0  0  0  0  0  0  0  0  0  0  0  0
   16.1787  -18.3853   -1.1124 F   0  0  0  0  0  0  0  0  0  0  0  0
   13.5988  -16.7438   -0.1784 C   0  0  0  0  0  0  0  0  0  0  0  0
   12.0455  -18.4074   -1.4121 C   0  0  0  0  0  0  0  0  0  0  0  0
   11.4286  -19.3191   -2.5085 C   0  0  0  0  0  0  0  0  0  0  0  0
   15.8254  -18.0138    0.1754 C   0  0  0  0  0  0  0  0  0  0  0  0
   15.0880  -16.6560    0.1573 C   0  0  0  0  0  0  0  0  0  0  0  0
   15.0769  -19.1828    0.8929 C   0  0  0  0  0  0  0  0  0  0  0  0
   11.3716  -17.8607   -2.7010 C   0  0  0  0  0  0  0  0  0  0  0  0
   14.7484  -18.7616    2.3264 C   0  0  0  0  0  0  0  0  0  0  0  0
   13.7949  -19.3718    3.0410 C   0  0  0  0  0  0  0  0  0  0  0  0
   12.9300  -20.4148    2.4054 C   0  0  0  0  0  0  0  0  0  0  0  0
   13.7840  -19.7116    0.1174 C   0  0  0  0  0  0  0  0  0  0  0  0
   13.4592  -19.0695   -1.2720 C   0  0  0  0  0  0  0  0  0  0  0  0
   12.5294  -19.9331    1.0138 C   0  0  0  0  0  0  0  0  0  0  0  0
   15.9752  -20.2709    0.9735 O   0  0  0  0  0  0  0  0  0  0  0  0
  3  1  1  0
  4  1  1  0
  5  4  1  0
  6  2  1  0
  7  3  1  0
  7  6  1  0
  8  6  1  0
  9  4  1  0
  9  5  1  0
 10  8  1  0
 11 10  2  0
 12 11  1  0
 13  8  1  0
 14  1  1  0
 14  4  1  0
 14 13  1  0
 15 12  1  0
 15 13  1  0
 16  8  1  0
M  END
$$$$
