
     RDKit          3D

 16 18  0  0  0  0  0  0  0  0999 V2000
   11.0729  -19.0734   -9.6137 N   0  0  0  0  0  0  0  0  0  0  0  0
   12.5792  -20.3855   -8.1861 C   0  0  0  0  0  0  0  0  0  0  0  0
   13.7649  -19.5141   -8.0822 N   0  0  0  0  0  0  0  0  0  0  0  0
   11.1588  -15.1393  -11.8659 C   0  0  0  0  0  0  0  0  0  0  0  0
   11.9535  -16.1584  -12.4413 O   0  0  0  0  0  0  0  0  0  0  0  0
   10.8444  -18.8164  -10.9828 N   0  0  0  0  0  0  0  0  0  0  0  0
   11.4426  -16.4118  -11.1548 C   0  0  0  0  0  0  0  0  0  0  0  0
   13.3584  -20.0016   -9.4148 C   0  0  0  0  0  0  0  0  0  0  0  0
   14.1714  -21.1271   -9.9221 N   0  0  0  0  0  0  0  0  0  0  0  0
   15.3147  -20.6119  -10.6841 C   0  0  0  0  0  0  0  0  0  0  0  0
   15.6893  -21.5765  -11.8096 C   0  0  0  0  0  0  0  0  0  0  0  0
   16.0864  -23.0358  -11.2917 B   0  0  0  0  0  0  0  0  0  0  0  0
   10.3125  -17.4566  -11.1299 C   0  0  0  0  0  0  0  0  0  0  0  0
   11.8829  -20.2812   -9.5153 C   0  0  0  0  0  0  0  0  0  0  0  0
   12.5152  -16.3798  -10.0647 C   0  0  0  0  0  0  0  0  0  0  0  0
   17.3246  -23.2517  -10.3223 C   0  0  0  0  0  0  0  0  0  0  0  0
  3  2  1  0
  5  4  1  0
  6  1  1  0
  7  4  1  0
  7  5  1  0
  8  2  1  0
  8  3  1  0
  9  8  1  0
 10  9  1  0
 11 10  1  0
 12 11  1  0
 13  6  1  0
 13  7  1  0
 14  1  1  0
 14  2  1  0
 14  8  1  0
 15  7  1  0
 16 12  1  0
M  END
$$$$
