
     RDKit          3D

 19 23  0  0  0  0  0  0  0  0999 V2000
   16.0672  -24.0192  -13.0619 C   0  0  0  0  0  0  0  0  0  0  0  0
   15.9864  -24.3526  -11.5156 C   0  0  0  0  0  0  0  0  0  0  0  0
   15.1190  -24.3139  -14.2673 C   0  0  0  0  0  0  0  0  0  0  0  0
   13.7120  -23.7235  -14.5760 C   0  0  0  0  0  0  0  0  0  0  0  0
   13.0390  -22.9446  -13.5206 C   0  0  0  0  0  0  0  0  0  0  0  0
   13.6631  -22.3340  -12.2697 C   0  0  0  0  0  0  0  0  0  0  0  0
   15.0337  -25.3587  -10.8595 C   0  0  0  0  0  0  0  0  0  0  0  0
   13.5049  -23.2479  -11.0488 C   0  0  0  0  0  0  0  0  0  0  0  0
   14.8517  -23.8575  -10.5715 C   0  0  0  0  0  0  0  0  0  0  0  0
   13.1283  -20.3962  -13.8322 As  0  0  0  0  0  3  0  0  0  0  0  0
   13.7172  -22.1476  -14.6339 C   0  0  0  0  0  0  0  0  0  0  0  0
   13.0359  -21.0975  -12.1125 O   0  0  0  0  0  0  0  0  0  0  0  0
   13.8980  -25.1647  -14.0773 C   0  0  0  0  0  0  0  0  0  0  0  0
   15.6183  -20.3376  -16.0689 Cl  0  0  0  0  0  0  0  0  0  0  0  0
   15.8470  -19.2134  -14.6883 C   0  0  0  0  0  0  0  0  0  0  0  0
   17.3779  -24.3465  -10.8352 C   0  0  0  0  0  0  0  0  0  0  0  0
   17.9946  -17.8997  -14.2725 C   0  0  0  0  0  0  0  0  0  0  0  0
   14.8449  -19.3911  -13.5120 C   0  0  0  0  0  0  0  0  0  0  0  0
   17.3264  -19.2722  -14.2120 C   0  0  0  0  0  0  0  0  0  0  0  0
  2  1  1  0
  3  1  1  0
  4  3  1  0
  5  4  1  0
  6  5  1  0
  7  2  1  0
  8  6  1  0
  9  2  1  0
  9  7  1  0
  9  8  1  0
 11  4  1  0
 11  5  1  0
 11 10  1  0
 12  6  1  0
 12 10  1  0
 13  3  1  0
 13  4  1  0
 15 14  1  0
 16  2  1  0
 18 10  1  0
 18 15  1  0
 19 15  1  0
 19 17  1  0
M  END
$$$$
