
     RDKit          3D

 20 19  0  0  0  0  0  0  0  0999 V2000
   20.3191  -14.2991  -15.9523 N   0  0  0  0  0  0  0  0  0  0  0  0
   21.3839  -15.1622  -15.4225 C   0  0  0  0  0  0  0  0  0  0  0  0
   19.5521  -13.4073  -15.1309 C   0  0  0  0  0  0  0  0  0  0  0  0
   20.7772  -16.1251  -14.3604 C   0  0  0  0  0  0  0  0  0  0  0  0
   22.6083  -14.3097  -14.9553 C   0  0  0  0  0  0  0  0  0  0  0  0
   22.9476  -12.8490  -16.1953 Br  0  0  0  0  0  0  0  0  0  0  0  0
   24.2508  -15.3478  -14.9498 Br  0  0  0  0  0  0  0  0  0  0  0  0
   21.9793  -18.2702  -15.0856 C   0  0  0  0  0  0  0  0  0  0  0  0
   18.7388  -12.5015  -15.6784 C   0  0  0  0  0  0  0  0  0  0  0  0
   17.9521  -11.5367  -14.8348 C   0  0  0  0  0  0  0  0  0  0  0  0
   21.6524  -17.3159  -13.9371 C   0  0  0  0  0  0  0  0  0  0  0  0
   22.3982  -13.5985  -13.3296 Cl  0  0  0  0  0  0  0  0  0  0  0  0
   19.9595  -10.5488  -13.5919 C   0  0  0  0  0  0  0  0  0  0  0  0
   20.6077   -9.2532  -13.0923 C   0  0  0  0  0  0  0  0  0  0  0  0
   21.8333   -9.5694  -12.2752 C   0  0  0  0  0  0  0  0  0  0  0  0
   21.6888   -9.7438  -10.9978 N   0  0  0  0  0  0  0  0  0  0  0  0
   18.7481  -10.2665  -14.4914 C   0  0  0  0  0  0  0  0  0  0  0  0
   23.1210   -9.7805  -12.8971 N   0  0  0  0  0  0  0  0  0  0  0  0
   23.3826   -9.4013  -14.2835 C   0  0  0  0  0  0  0  0  0  0  0  0
   24.1298  -10.3412  -12.1835 O   0  0  0  0  0  0  0  0  0  0  0  0
  2  1  1  0
  3  1  1  0
  4  2  1  0
  5  2  1  0
  6  5  1  0
  7  5  1  0
  9  3  2  3
 10  9  1  0
 11  4  1  0
 11  8  1  0
 12  5  1  0
 14 13  1  0
 15 14  1  0
 16 15  2  0
 17 10  1  0
 17 13  1  0
 18 15  1  0
 19 18  1  0
 20 18  1  0
M  END
$$$$
