
     RDKit          3D

 20 24  0  0  0  0  0  0  0  0999 V2000
   16.4922  -15.9841   -9.2776 C   0  0  0  0  0  0  0  0  0  0  0  0
   18.7806  -17.0017   -8.6821 C   0  0  0  0  0  0  0  0  0  0  0  0
   18.4334  -14.4191   -8.6788 C   0  0  0  0  0  0  0  0  0  0  0  0
   18.0135  -15.7876   -9.2646 C   0  0  0  0  0  0  0  0  0  0  0  0
   18.2611  -17.5250   -7.3381 C   0  0  0  0  0  0  0  0  0  0  0  0
   17.9428  -14.1592   -7.2395 C   0  0  0  0  0  0  0  0  0  0  0  0
   18.8891  -13.9827   -6.0982 C   0  0  0  0  0  0  0  0  0  0  0  0
   20.3542  -14.3289   -6.3692 C   0  0  0  0  0  0  0  0  0  0  0  0
   21.3504  -13.7201   -5.3982 C   0  0  0  0  0  0  0  0  0  0  0  0
   22.6182  -13.2856   -6.1276 C   0  0  0  0  0  0  0  0  0  0  0  0
   23.5480  -14.4717   -6.5202 C   0  0  0  0  0  0  0  0  0  0  0  0
   24.1871  -16.1422   -8.4010 C   0  0  0  0  0  0  0  0  0  0  0  0
   18.3845  -12.8845   -6.8216 O   0  0  0  0  0  0  0  0  0  0  0  0
   24.0486  -17.3236   -7.4613 C   0  0  0  0  0  0  0  0  0  0  0  0
   25.2445  -14.0575   -4.7723 N   0  0  0  0  0  0  0  0  0  0  0  0
   21.2751  -13.2126   -6.8401 C   0  0  0  0  0  0  0  0  0  0  0  0
   22.7218  -18.0309   -7.6245 C   0  0  0  0  0  0  0  0  0  0  0  0
   25.0145  -14.1022   -6.2130 C   0  0  0  0  0  0  0  0  0  0  0  0
   23.3251  -17.3224   -8.8152 C   0  0  0  0  0  0  0  0  0  0  0  0
   23.3920  -14.8783   -8.0156 C   0  0  0  0  0  0  0  0  0  0  0  0
  4  1  1  0
  4  2  1  0
  4  3  1  0
  5  2  1  0
  6  3  1  0
  7  6  1  0
  8  7  1  0
  9  8  1  0
 10  9  1  0
 11 10  1  0
 13  6  1  0
 13  7  1  0
 14 12  1  0
 16  8  1  0
 16  9  1  0
 16 10  1  0
 17 14  1  0
 18 11  1  0
 18 15  1  0
 19 12  1  0
 19 14  1  0
 19 17  1  0
 20 11  1  0
 20 12  1  0
M  END
$$$$
