
     RDKit          3D

 19 20  0  0  0  0  0  0  0  0999 V2000
   29.5175  -25.9294   -8.6974 O   0  0  0  0  0  0  0  0  0  0  0  0
   30.1791  -24.9225  -10.7943 P   0  0  0  0  0  0  0  0  0  0  0  0
   28.9651  -24.3901  -11.9955 O   0  0  0  0  0  0  0  0  0  0  0  0
   25.4291  -23.4975  -11.8329 O   0  0  0  0  0  0  0  0  0  0  0  0
   28.9902  -21.6944  -10.0951 C   0  0  0  0  0  0  0  0  0  0  0  0
   30.7640  -22.4675   -8.6165 C   0  0  0  0  0  0  0  0  0  0  0  0
   30.2660  -23.9001   -8.1997 C   0  0  0  0  0  0  0  0  0  0  0  0
   29.4395  -24.6906   -9.2248 N   0  0  0  0  0  0  0  0  0  0  0  0
   30.3744  -21.4053  -11.0067 C   0  0  0  0  0  0  0  0  0  0  0  0
   28.3159  -21.5294   -8.6374 C   0  0  0  0  0  0  0  0  0  0  0  0
   31.9240  -20.9092  -10.5027 C   0  0  0  0  0  0  0  0  0  0  0  0
   32.0883  -19.4949  -10.1301 C   0  0  0  0  0  0  0  0  0  0  0  0
   30.2239  -18.2860  -10.6168 C   0  0  0  0  0  0  0  0  0  0  0  0
   29.3949  -19.3583   -9.5592 C   0  0  0  0  0  0  0  0  0  0  0  0
   31.8008  -19.1605  -12.5106 C   0  0  0  0  0  0  0  0  0  0  0  0
   29.6915  -21.0526   -8.9895 C   0  0  0  0  0  0  0  0  0  0  0  0
   31.4652  -18.8097  -11.2004 C   0  0  0  0  0  0  0  0  0  0  0  0
   27.6604  -24.5032  -11.4734 C   0  0  0  0  0  0  0  0  0  0  0  0
   26.6898  -23.7398  -12.4204 C   0  0  0  0  0  0  0  0  0  0  0  0
  3  2  1  0
  7  6  1  0
  8  1  1  0
  8  2  1  0
  8  7  1  0
  9  5  1  0
 10  5  1  0
 11  9  1  0
 12 11  1  0
 14 13  1  0
 16  5  1  0
 16  6  1  0
 16 10  1  0
 16 14  1  0
 17 12  1  0
 17 13  1  0
 17 15  2  0
 18  3  1  0
 19  4  1  0
 19 18  1  0
M  END
$$$$
