
     RDKit          3D

 21 27  0  0  0  0  0  0  0  0999 V2000
   16.4195  -18.8432  -16.0690 N   0  0  0  0  0  2  0  0  0  0  0  0
   15.1192  -19.4249  -16.2320 C   0  0  0  0  0  0  0  0  0  0  0  0
   16.6148  -19.4847  -17.3841 C   0  0  0  0  0  0  0  0  0  0  0  0
   13.8633  -18.7713  -15.7315 C   0  0  0  0  0  0  0  0  0  0  0  0
   14.4311  -20.0911  -15.0889 C   0  0  0  0  0  0  0  0  0  0  0  0
   16.8521  -18.4832  -18.4306 N   0  0  0  0  0  0  0  0  0  0  0  0
   15.2627  -20.0609  -17.5139 N   0  0  0  0  0  2  0  0  0  0  0  0
   12.9547  -19.8261  -15.0832 C   0  0  0  0  0  0  0  0  0  0  0  0
   12.2142  -20.7083  -16.0858 C   0  0  0  0  0  0  0  0  0  0  0  0
   18.2202  -17.9607  -18.3407 C   0  0  0  0  0  0  0  0  0  0  0  0
   13.4911  -21.2174  -15.4638 C   0  0  0  0  0  0  0  0  0  0  0  0
   19.4277  -15.8001  -19.0465 C   0  0  0  0  0  0  0  0  0  0  0  0
   19.6098  -14.6835  -20.0697 C   0  0  0  0  0  0  0  0  0  0  0  0
   20.5707  -13.5465  -19.6117 C   0  0  0  0  0  0  0  0  0  0  0  0
   18.1147  -14.3985  -20.0412 C   0  0  0  0  0  0  0  0  0  0  0  0
   17.9124  -15.5086  -19.0217 C   0  0  0  0  0  0  0  0  0  0  0  0
   18.4261  -16.8812  -19.4078 C   0  0  0  0  0  0  0  0  0  0  0  0
   20.1737  -12.8020  -18.2929 C   0  0  0  0  0  0  0  0  0  0  0  0
   19.5534  -11.4070  -18.4511 C   0  0  0  0  0  0  0  0  0  0  0  0
   20.9243  -12.6156  -20.7907 C   0  0  0  0  0  0  0  0  0  0  0  0
   19.7645  -12.0614  -21.3529 O   0  0  0  0  0  0  0  0  0  0  0  0
  2  1  1  0
  3  1  1  0
  4  2  1  0
  5  2  1  0
  5  4  1  0
  6  3  1  0
  7  2  1  0
  7  3  1  0
  8  4  1  0
  8  5  1  0
  9  8  1  0
 10  6  1  0
 11  5  1  0
 11  8  1  0
 11  9  1  0
 13 12  1  0
 14 13  1  0
 15 13  1  0
 16 12  1  0
 16 15  1  0
 17 10  1  0
 17 12  1  0
 17 16  1  0
 18 14  1  0
 19 18  1  0
 20 14  1  0
 21 20  1  0
M  RAD  2   1   2   7   2
M  END
$$$$
