
     RDKit          3D

 43 51  0  0  0  0  0  0  0  0999 V2000
   17.5709  -27.4631  -12.6308 O   0  0  0  0  0  0  0  0  0  0  0  0
   16.8526  -26.1926  -12.5291 C   0  0  0  0  0  0  0  0  0  0  0  0
   16.1345  -23.8387  -11.6096 C   0  0  0  0  0  0  0  0  0  0  0  0
   17.4667  -24.7409  -11.9754 C   0  0  0  0  0  0  0  0  0  0  0  0
   18.4846  -23.9300  -12.9105 C   0  0  0  0  0  0  0  0  0  0  0  0
   18.4193  -24.4484  -14.2903 C   0  0  0  0  0  0  0  0  0  0  0  0
   16.9974  -23.7287  -14.9389 C   0  0  0  0  0  0  0  0  0  0  0  0
   19.1134  -25.9308  -14.3823 C   0  0  0  0  0  0  0  0  0  0  0  0
   19.9712  -26.2846  -13.3252 C   0  0  0  0  0  0  0  0  0  0  0  0
   17.0404  -22.3689  -14.5265 O   0  0  0  0  0  0  0  0  0  0  0  0
   20.3069  -25.3114  -12.1921 C   0  0  0  0  0  0  0  0  0  0  0  0
   16.3696  -23.8009  -16.2623 C   0  0  0  0  0  0  0  0  0  0  0  0
   20.9112  -25.0547  -10.6909 C   0  0  0  0  0  0  0  0  0  0  0  0
   21.1889  -26.1241   -9.4235 C   0  0  0  0  0  0  0  0  0  0  0  0
   20.1518  -26.9559   -8.5255 C   0  0  0  0  0  0  0  0  0  0  0  0
   17.9712  -21.9478  -19.7319 N   0  0  0  0  0  0  0  0  0  0  0  0
   19.0690  -24.5778  -11.7454 C   0  0  0  0  0  0  0  0  0  0  0  0
   19.2989  -26.0108   -7.5314 C   0  0  0  0  0  0  0  0  0  0  0  0
   17.9761  -28.0308  -11.3590 C   0  0  0  0  0  0  0  0  0  0  0  0
   19.8542  -23.8732  -10.6085 C   0  0  0  0  0  0  0  0  0  0  0  0
   18.0308  -26.7708  -10.4072 C   0  0  0  0  0  0  0  0  0  0  0  0
   17.5471  -25.2363  -17.7062 C   0  0  0  0  0  0  0  0  0  0  0  0
   16.0137  -23.3293  -18.7285 C   0  0  0  0  0  0  0  0  0  0  0  0
   18.8758  -25.2185  -18.3085 C   0  0  0  0  0  0  0  0  0  0  0  0
   17.8417  -26.3957   -7.0722 C   0  0  0  0  0  0  0  0  0  0  0  0
   16.6613  -25.6075   -7.6828 C   0  0  0  0  0  0  0  0  0  0  0  0
   15.5475  -25.0022   -6.7789 C   0  0  0  0  0  0  0  0  0  0  0  0
   18.8023  -25.4624  -19.8490 C   0  0  0  0  0  0  0  0  0  0  0  0
   14.4476  -25.6175   -7.6708 C   0  0  0  0  0  0  0  0  0  0  0  0
   14.7489  -21.3464  -18.8048 C   0  0  0  0  0  0  0  0  0  0  0  0
   17.0755  -23.7786  -17.5710 C   0  0  0  0  0  0  0  0  0  0  0  0
   13.3478  -26.5172   -7.0922 C   0  0  0  0  0  0  0  0  0  0  0  0
   15.5212  -26.5060   -8.2796 C   0  0  0  0  0  0  0  0  0  0  0  0
   12.5393  -25.8536   -5.9682 C   0  0  0  0  0  0  0  0  0  0  0  0
   14.7102  -22.7407  -18.3856 N   0  0  0  0  0  0  0  0  0  0  0  0
   15.6758  -21.3371  -19.9691 C   0  0  0  0  0  0  0  0  0  0  0  0
   19.4751  -28.2010   -9.3137 C   0  0  0  0  0  0  0  0  0  0  0  0
   11.5496  -26.8819   -5.5653 C   0  0  0  0  0  0  0  0  0  0  0  0
   19.1332  -29.0559  -11.5049 C   0  0  0  0  0  0  0  0  0  0  0  0
   16.6176  -22.4870  -19.8934 N   0  0  0  0  0  0  0  0  0  0  0  0
   12.6721  -26.5899   -4.6790 N   0  0  0  0  0  0  0  0  0  0  0  0
   17.9671  -27.9626   -9.7882 C   0  0  0  0  0  0  0  0  0  0  0  0
   20.2248  -28.4225  -10.7187 C   0  0  0  0  0  0  0  0  0  0  0  0
  2  1  1  0
  4  2  1  0
  4  3  1  0
  5  4  1  0
  6  5  1  0
  7  6  1  0
  8  6  1  0
  9  8  2  0
 10  7  1  0
 11  9  1  0
 12  7  1  0
 13 11  1  0
 14 13  1  0
 15 14  1  0
 17  4  1  0
 17  5  1  0
 17 11  1  0
 18 15  1  0
 19  1  1  0
 20 13  1  0
 20 17  1  0
 21 19  1  0
 24 22  1  0
 25 18  1  0
 26 25  1  0
 27 26  1  0
 28 24  1  0
 29 27  1  0
 31 12  1  0
 31 22  1  0
 31 23  1  0
 32 29  1  0
 33 26  1  0
 33 29  1  0
 34 32  1  0
 35 23  1  0
 35 30  1  0
 36 30  1  0
 37 15  1  0
 38 34  1  0
 39 19  1  0
 40 16  1  0
 40 23  1  0
 40 36  1  0
 41 34  1  0
 41 38  1  0
 42 19  1  0
 42 21  1  0
 42 37  1  0
 43 37  1  0
 43 39  1  0
M  END
$$$$
