
     RDKit          3D

 17 20  0  0  0  0  0  0  0  0999 V2000
   25.1161  -20.1410  -11.5967 N   0  0  0  0  0  2  0  0  0  0  0  0
   25.4997  -20.5286  -10.3412 C   0  0  0  0  0  0  0  0  0  0  0  0
   24.0092  -20.7643  -12.0897 C   0  0  0  0  0  0  0  0  0  0  0  0
   23.3703  -21.8664  -11.5260 C   0  0  0  0  0  0  0  0  0  0  0  0
   24.7500  -21.4827   -9.7107 N   0  0  0  0  0  0  0  0  0  0  0  0
   25.1704  -19.1781  -10.3432 N   0  0  0  0  0  2  0  0  0  0  0  0
   23.9180  -22.4493  -10.3960 C   0  0  0  0  0  0  0  0  0  0  0  0
   24.9989  -18.3892   -9.1690 C   0  0  0  0  0  0  0  0  0  0  0  0
   23.5275  -23.6945   -9.9735 N   0  0  0  0  0  0  0  0  0  0  0  0
   25.9835  -19.0427   -8.3612 C   0  0  0  0  0  0  0  0  0  0  0  0
   26.7526  -17.8411   -8.1788 C   0  0  0  0  0  0  0  0  0  0  0  0
   25.7522  -17.5963   -7.9463 C   0  0  0  0  0  0  0  0  0  0  0  0
   22.9115  -21.4313  -10.4881 N   0  0  0  0  0  0  0  0  0  0  0  0
   22.8065  -20.5028  -11.3247 O   0  0  0  0  0  0  0  0  0  0  0  0
   22.5046  -23.8295   -9.1956 C   0  0  0  0  0  0  0  0  0  0  0  0
   22.3612  -24.8831   -8.5389 O   0  0  0  0  0  0  0  0  0  0  0  0
   21.9987  -22.4896   -8.6226 C   0  0  0  0  0  0  0  0  0  0  0  0
  2  1  1  0
  3  1  1  0
  4  3  1  0
  5  2  1  0
  6  2  1  0
  7  4  1  0
  7  5  1  0
  8  6  1  0
  9  7  1  0
 10  8  1  0
 11 10  1  0
 12  8  1  0
 12 11  1  0
 13  4  1  0
 13  7  1  0
 14  3  1  0
 14 13  1  0
 15  9  1  0
 16 15  2  0
 17 15  1  0
M  RAD  2   1   2   6   2
M  END
$$$$
