
     RDKit          3D

 18 19  0  0  0  0  0  0  0  0999 V2000
   14.2587  -15.8935  -15.8014 N   0  0  0  0  0  0  0  0  0  0  0  0
   13.3922  -16.1088  -16.7423 C   0  0  0  0  0  0  0  0  0  0  0  0
   13.0775  -17.4713  -17.0810 N   0  0  0  0  0  0  0  0  0  0  0  0
   11.8988  -17.8712  -17.8474 C   0  0  0  0  0  0  0  0  0  0  0  0
   12.7943  -15.0092  -17.4551 N   0  0  0  0  0  0  0  0  0  0  0  0
   10.7792  -17.9099  -16.9829 O   0  0  0  0  0  0  0  0  0  0  0  0
   12.9297  -13.6206  -17.0255 C   0  0  0  0  0  0  0  0  0  0  0  0
   12.0207  -13.2458  -15.8706 C   0  0  0  0  0  0  0  0  0  0  0  0
   11.6849  -12.7858  -17.2776 C   0  0  0  0  0  0  0  0  0  0  0  0
   10.3826  -20.3514  -18.3390 C   0  0  0  0  0  0  0  0  0  0  0  0
    9.3885  -19.8760  -19.4017 C   0  0  0  0  0  0  0  0  0  0  0  0
   12.2027  -19.6572  -18.6027 Se  0  0  0  0  0  2  0  0  0  0  0  0
    9.1449  -18.3533  -19.4602 C   0  0  0  0  0  0  0  0  0  0  0  0
    8.6348  -17.7181  -18.1359 C   0  0  0  0  0  0  0  0  0  0  0  0
    7.6273  -16.7948  -18.4580 O   0  0  0  0  0  0  0  0  0  0  0  0
    9.7576  -16.9886  -17.3362 C   0  0  0  0  0  0  0  0  0  0  0  0
    8.3957  -15.1268  -16.1583 C   0  0  0  0  0  0  0  0  0  0  0  0
    9.2194  -16.4112  -16.0035 C   0  0  0  0  0  0  0  0  0  0  0  0
  2  1  2  0
  3  2  1  0
  4  3  1  0
  5  2  1  0
  6  4  1  0
  7  5  1  0
  8  7  1  0
  9  7  1  0
  9  8  1  0
 11 10  1  0
 12  4  1  0
 12 10  1  0
 13 11  1  0
 14 13  1  0
 15 14  1  0
 16  6  1  0
 16 14  1  0
 18 16  1  0
 18 17  1  0
M  END
$$$$
