
     RDKit          3D

 18 20  0  0  0  0  0  0  0  0999 V2000
   17.6616  -19.6162  -16.5521 N   0  0  0  0  0  2  0  0  0  0  0  0
   16.5575  -20.5690  -16.3129 C   0  0  0  0  0  0  0  0  0  0  0  0
   17.4835  -18.7579  -17.7320 C   0  0  0  0  0  0  0  0  0  0  0  0
   16.8025  -21.7580  -17.0237 O   0  0  0  0  0  0  0  0  0  0  0  0
   18.6781  -17.9372  -17.9384 N   0  0  0  0  0  0  0  0  0  0  0  0
   18.8644  -18.5884  -19.2367 C   0  0  0  0  0  0  0  0  0  0  0  0
   15.5542  -22.0121  -14.3906 C   0  0  0  0  0  0  0  0  0  0  0  0
   14.0649  -21.6369  -14.4230 C   0  0  0  0  0  0  0  0  0  0  0  0
   13.2076  -22.7819  -13.8646 C   0  0  0  0  0  0  0  0  0  0  0  0
   12.8889  -23.9976  -14.7326 C   0  0  0  0  0  0  0  0  0  0  0  0
   17.6594  -19.4893  -19.0543 C   0  0  0  0  0  0  0  0  0  0  0  0
   16.4849  -20.8490  -14.7934 C   0  0  0  0  0  0  0  0  0  0  0  0
   11.8366  -22.8974  -14.5102 C   0  0  0  0  0  0  0  0  0  0  0  0
   10.8969  -23.8277  -13.8815 N   0  0  0  0  0  0  0  0  0  0  0  0
   11.2736  -26.0143  -15.0521 C   0  0  0  0  0  0  0  0  0  0  0  0
   13.3009  -24.1141  -16.2176 C   0  0  0  0  0  0  0  0  0  0  0  0
   15.3339  -20.0321  -16.7357 O   0  0  0  0  0  1  0  0  0  0  0  0
   11.8387  -24.9234  -14.1282 C   0  0  0  0  0  0  0  0  0  0  0  0
  2  1  1  0
  3  1  1  0
  4  2  1  0
  5  3  1  0
  6  5  1  0
  8  7  1  0
  9  8  1  0
 10  9  1  0
 11  3  1  0
 11  6  1  0
 12  2  1  0
 12  7  1  0
 13  9  1  0
 13 10  1  0
 14 13  1  0
 16 10  1  0
 17  2  1  0
 18 10  1  0
 18 14  1  0
 18 15  1  0
M  RAD  2   1   2  17   2
M  END
$$$$
