
     RDKit          3D

 18 23  0  0  0  0  0  0  0  0999 V2000
   22.8758  -21.7809  -19.8877 Cl  0  0  0  0  0  0  0  0  0  0  0  0
   23.2620  -20.7563  -17.3754 C   0  0  0  0  0  0  0  0  0  0  0  0
   23.0515  -20.3474  -18.8373 C   0  0  0  0  0  0  0  0  0  0  0  0
   24.7454  -21.0075  -17.0585 C   0  0  0  0  0  0  0  0  0  0  0  0
   25.3681  -22.2603  -17.6148 C   0  0  0  0  0  0  0  0  0  0  0  0
   26.2746  -23.4068  -17.3024 C   0  0  0  0  0  0  0  0  0  0  0  0
   25.0766  -22.0423  -16.0429 C   0  0  0  0  0  0  0  0  0  0  0  0
   27.3882  -22.5337  -16.7118 C   0  0  0  0  0  0  0  0  0  0  0  0
   27.5677  -22.6548  -15.1845 C   0  0  0  0  0  0  0  0  0  0  0  0
   24.9064  -23.5313  -18.0377 N   0  0  0  0  0  0  0  0  0  0  0  0
   27.2956  -22.1728  -13.7144 C   0  0  0  0  0  0  0  0  0  0  0  0
   25.8751  -22.1312  -13.1860 C   0  0  0  0  0  0  0  0  0  0  0  0
   25.3059  -21.0891  -12.5552 C   0  0  0  0  0  0  0  0  0  0  0  0
   27.7034  -21.1738  -14.7279 C   0  0  0  0  0  0  0  0  0  0  0  0
   25.9246  -19.7270  -12.3725 C   0  0  0  0  0  0  0  0  0  0  0  0
   25.1382  -18.6903  -13.1655 C   0  0  0  0  0  0  0  0  0  0  0  0
   26.2147  -23.0305  -15.8579 C   0  0  0  0  0  0  0  0  0  0  0  0
   23.9380  -24.3376  -17.2670 C   0  0  0  0  0  0  0  0  0  0  0  0
  3  1  1  0
  3  2  1  0
  4  2  1  0
  5  4  1  0
  6  5  1  0
  7  4  1  0
  7  5  1  0
  8  6  1  0
  9  8  1  0
 10  5  1  0
 10  6  1  0
 11  9  1  0
 12 11  1  0
 13 12  2  3
 14  9  1  0
 14 11  1  0
 15 13  1  0
 16 15  1  0
 17  6  1  0
 17  7  1  0
 17  8  1  0
 17  9  1  0
 18 10  1  0
M  END
$$$$
