
     RDKit          3D

 18 18  0  0  0  0  0  0  0  0999 V2000
   24.5253  -21.4551   -6.9044 O   0  0  0  0  0  0  0  0  0  0  0  0
   24.1801  -22.3670   -5.9107 C   0  0  0  0  0  0  0  0  0  0  0  0
   24.7348  -23.7999   -6.1293 C   0  0  0  0  0  0  0  0  0  0  0  0
   25.4164  -22.4921   -4.9609 C   0  0  0  0  0  0  0  0  0  0  0  0
   25.5783  -21.1421   -3.8206 C   0  0  0  0  0  0  0  0  0  0  0  0
   26.3272  -21.7156   -2.5902 C   0  0  0  0  0  0  0  0  0  0  0  0
   27.6192  -20.9971   -2.2590 C   0  0  0  0  0  0  0  0  0  0  0  0
   27.7328  -19.4000   -2.3912 C   0  0  0  0  0  0  0  0  0  0  0  0
   27.6322  -17.0873   -2.7213 C   0  0  0  0  0  0  0  0  0  0  0  0
   24.4729  -18.2512   -3.1381 C   0  0  0  0  0  0  0  0  0  0  0  0
   25.1784  -16.3610   -1.1356 C   0  0  0  0  0  0  0  0  0  0  0  0
   25.4427  -17.8625   -1.7614 C   0  0  0  0  0  0  0  0  0  0  0  0
   24.3161  -15.2278   -1.8255 C   0  0  0  0  0  0  0  0  0  0  0  0
   26.0433  -15.9889   -0.3076 O   0  0  0  0  0  0  0  0  0  0  0  0
   27.0128  -18.0374   -2.1168 C   0  0  0  0  0  0  0  0  0  0  0  0
   24.8592  -13.6056   -4.1297 C   0  0  0  0  0  0  0  0  0  0  0  0
   23.9030  -12.3949   -3.9134 C   0  0  0  0  0  0  0  0  0  0  0  0
   24.5590  -14.9932   -3.4779 C   0  0  0  0  0  0  0  0  0  0  0  0
  2  1  1  0
  3  2  1  0
  4  2  1  0
  4  3  1  0
  5  4  1  0
  6  5  1  0
  7  6  1  0
  8  7  1  0
 12 10  1  0
 12 11  1  0
 13 11  1  0
 14 11  2  0
 15  8  1  0
 15  9  2  0
 15 12  1  0
 17 16  1  0
 18 13  1  0
 18 16  1  0
M  END
$$$$
