
     RDKit          3D

 25 31  0  0  0  0  0  0  0  0999 V2000
   23.7707  -21.9274   -9.8786 C   0  0  0  0  0  0  0  0  0  0  0  0
   23.6730  -22.7129  -11.0302 O   0  0  0  0  0  0  0  0  0  0  0  0
   22.7805  -22.3523   -8.8544 N   0  0  0  0  0  0  0  0  0  0  0  0
   23.0781  -22.1162   -7.4136 C   0  0  0  0  0  0  0  0  0  0  0  0
   22.6037  -21.0721   -9.5954 C   0  0  0  0  0  0  0  0  0  0  0  0
   21.3957  -21.1832  -10.4991 C   0  0  0  0  0  0  0  0  0  0  0  0
   20.3755  -20.3110  -10.5008 C   0  0  0  0  0  0  0  0  0  0  0  0
   24.5142  -21.6626   -7.0705 C   0  0  0  0  0  0  0  0  0  0  0  0
   20.3851  -18.9989   -9.7561 C   0  0  0  0  0  0  0  0  0  0  0  0
   20.5331  -18.9501   -8.2041 C   0  0  0  0  0  0  0  0  0  0  0  0
   20.6098  -17.5711   -7.5390 C   0  0  0  0  0  0  0  0  0  0  0  0
   19.7501  -16.6074   -8.3749 C   0  0  0  0  0  0  0  0  0  0  0  0
   19.1848  -18.9186   -8.7994 C   0  0  0  0  0  0  0  0  0  0  0  0
   22.7315  -23.4172   -6.6406 C   0  0  0  0  0  0  0  0  0  0  0  0
   18.9042  -17.5372   -9.3129 C   0  0  0  0  0  0  0  0  0  0  0  0
   21.4441  -23.2570   -5.9316 N   0  0  0  0  0  0  0  0  0  0  0  0
   20.7037  -24.5311   -5.8606 C   0  0  0  0  0  0  0  0  0  0  0  0
   21.6711  -22.7386   -4.5718 C   0  0  0  0  0  0  0  0  0  0  0  0
   18.2648  -16.5522   -8.3280 C   0  0  0  0  0  0  0  0  0  0  0  0
   19.8765  -17.7279  -10.4753 C   0  0  0  0  0  0  0  0  0  0  0  0
   19.3561  -24.3778   -5.1136 C   0  0  0  0  0  0  0  0  0  0  0  0
   21.2206  -21.3004   -4.3978 C   0  0  0  0  0  0  0  0  0  0  0  0
   18.5283  -22.0084   -5.5737 C   0  0  0  0  0  0  0  0  0  0  0  0
   20.3858  -22.4408   -3.8052 C   0  0  0  0  0  0  0  0  0  0  0  0
   19.1197  -22.9643   -4.5289 C   0  0  0  0  0  0  0  0  0  0  0  0
  2  1  1  0
  3  1  1  0
  4  3  1  0
  5  1  1  0
  5  3  1  0
  6  5  1  0
  7  6  2  3
  8  4  1  0
  9  7  1  0
 10  9  1  0
 11 10  1  0
 12 11  1  0
 13  9  1  0
 13 10  1  0
 14  4  1  0
 15 12  1  0
 15 13  1  0
 16 14  1  0
 17 16  1  0
 18 16  1  0
 19 12  1  0
 19 15  1  0
 20  9  1  0
 20 15  1  0
 21 17  1  0
 22 18  1  0
 24 18  1  0
 24 22  1  0
 25 21  1  0
 25 23  1  0
 25 24  1  0
M  END
$$$$
