
     RDKit          3D

 25 25  0  0  0  0  0  0  0  0999 V2000
   25.0939  -33.7660   -3.1964 O   0  0  0  0  0  0  0  0  0  0  0  0
   17.9022  -34.7082   -7.6096 Cl  0  0  0  0  0  0  0  0  0  0  0  0
   24.3544  -33.6694   -4.2155 C   0  0  0  0  0  0  0  0  0  0  0  0
   24.6334  -34.4857   -5.3638 N   0  0  0  0  0  0  0  0  0  0  0  0
   23.6935  -36.7181   -4.7612 C   0  0  0  0  0  0  0  0  0  0  0  0
   22.8466  -36.3565   -3.6013 N   0  0  0  0  0  0  0  0  0  0  0  0
   23.4950  -36.6654   -2.3163 C   0  0  0  0  0  0  0  0  0  0  0  0
   22.5005  -35.1036   -6.5281 C   0  0  0  0  0  0  0  0  0  0  0  0
   23.7957  -35.6043   -5.8310 C   0  0  0  0  0  0  0  0  0  0  0  0
   22.5062  -37.0902   -1.2015 C   0  0  0  0  0  0  0  0  0  0  0  0
   21.5132  -35.9567   -0.7873 C   0  0  0  0  0  0  0  0  0  0  0  0
   23.3102  -37.5444    0.0369 C   0  0  0  0  0  0  0  0  0  0  0  0
   21.1926  -35.8810   -6.3313 C   0  0  0  0  0  0  0  0  0  0  0  0
   20.1405  -35.9311   -1.5256 C   0  0  0  0  0  0  0  0  0  0  0  0
   19.1088  -37.0446   -8.8217 C   0  0  0  0  0  0  0  0  0  0  0  0
   18.2116  -35.8070   -8.9875 C   0  0  0  0  0  0  0  0  0  0  0  0
   19.0101  -38.9343   -7.1312 C   0  0  0  0  0  0  0  0  0  0  0  0
   20.0336  -34.7520   -2.4989 C   0  0  0  0  0  0  0  0  0  0  0  0
   19.6686  -35.7592   -9.4290 C   0  0  0  0  0  0  0  0  0  0  0  0
   23.2886  -32.6227   -4.2376 C   0  0  0  0  0  0  0  0  0  0  0  0
   19.8647  -37.1286   -2.2106 O   0  0  0  0  0  0  0  0  0  0  0  0
   22.1264  -37.8573   -7.8973 C   0  0  0  0  0  0  0  0  0  0  0  0
   21.7773  -38.3245   -9.3139 C   0  0  0  0  0  0  0  0  0  0  0  0
   19.4905  -37.4916   -7.3733 C   0  0  0  0  0  0  0  0  0  0  0  0
   20.9948  -37.3069   -6.9494 C   0  0  0  0  0  0  0  0  0  0  0  0
  3  1  2  0
  4  3  1  0
  6  5  1  0
  7  6  1  0
  9  4  1  0
  9  5  1  0
  9  8  1  0
 10  7  1  0
 11 10  1  0
 12 10  1  0
 13  8  1  0
 14 11  1  0
 16  2  1  0
 16 15  1  0
 18 14  1  0
 19 15  1  0
 19 16  1  0
 20  3  1  0
 21 14  1  0
 23 22  1  0
 24 15  1  0
 24 17  1  0
 25 13  1  0
 25 22  1  0
 25 24  1  0
M  END
$$$$
