
     RDKit          3D

 27 28  0  0  0  0  0  0  0  0999 V2000
   25.8553  -19.8016    4.3968 N   0  0  0  0  0  0  0  0  0  0  0  0
   20.5581  -16.6924    6.2611 C   0  0  0  0  0  0  0  0  0  0  0  0
   25.6261  -18.8717    5.5060 C   0  0  0  0  0  0  0  0  0  0  0  0
   20.7256  -17.0093    3.6243 C   0  0  0  0  0  0  0  0  0  0  0  0
   21.2255  -18.4254    3.8352 C   0  0  0  0  0  0  0  0  0  0  0  0
   24.4085  -19.3189    6.2600 N   0  0  0  0  0  0  0  0  0  0  0  0
   23.4053  -18.3149    6.7237 C   0  0  0  0  0  0  0  0  0  0  0  0
   24.6423  -20.3392    7.2110 N   0  0  0  0  0  0  0  0  0  0  0  0
   23.9544  -17.4911    7.9638 C   0  0  0  0  0  0  0  0  0  0  0  0
   23.6558  -15.9692    7.8630 C   0  0  0  0  0  0  0  0  0  0  0  0
   23.6777  -18.1255    9.3640 C   0  0  0  0  0  0  0  0  0  0  0  0
   21.9889  -18.9834    6.8820 C   0  0  0  0  0  0  0  0  0  0  0  0
   22.5473  -17.4832   10.1873 C   0  0  0  0  0  0  0  0  0  0  0  0
   24.6435  -15.1274    8.6303 C   0  0  0  0  0  0  0  0  0  0  0  0
   22.2659  -18.2782   11.4713 C   0  0  0  0  0  0  0  0  0  0  0  0
   21.4910  -19.4087   11.1506 O   0  0  0  0  0  0  0  0  0  0  0  0
   21.4995  -17.4278   12.4888 C   0  0  0  0  0  0  0  0  0  0  0  0
   24.2551  -13.9905    9.2270 C   0  0  0  0  0  0  0  0  0  0  0  0
   25.2500  -12.9516    9.6756 C   0  0  0  0  0  0  0  0  0  0  0  0
   25.0351  -12.5004   11.1288 C   0  0  0  0  0  0  0  0  0  0  0  0
   23.6464  -11.9063   11.3783 C   0  0  0  0  0  0  0  0  0  0  0  0
   20.6670  -19.0716    5.1302 C   0  0  0  0  0  0  0  0  0  0  0  0
   20.7143  -18.2259    6.4075 C   0  0  0  0  0  0  0  0  0  0  0  0
   21.7044  -20.0035    5.7444 C   0  0  0  0  0  0  0  0  0  0  0  0
   21.4617  -15.9240    4.8782 S   0  0  0  0  0  0  0  0  0  0  0  0
   27.4530  -18.7970    6.6964 I   0  0  0  0  0  0  0  0  0  0  0  0
   25.4200  -17.5911    4.9536 O   0  0  0  0  0  0  0  0  0  0  0  0
  3  1  1  0
  5  4  1  0
  6  3  1  0
  7  6  1  0
  8  6  1  0
  9  7  1  0
 10  9  1  0
 11  9  1  0
 12  7  1  0
 13 11  1  0
 14 10  1  0
 15 13  1  0
 16 15  1  0
 17 15  1  0
 18 14  2  3
 19 18  1  0
 20 19  1  0
 21 20  1  0
 22  5  1  0
 23  2  1  0
 23 12  1  0
 23 22  1  0
 24 12  1  0
 24 22  1  0
 25  2  1  0
 25  4  1  0
 26  3  1  0
 27  3  1  0
M  END
$$$$
