
     RDKit          3D

 27 28  0  0  0  0  0  0  0  0999 V2000
   16.5677  -28.0028   -8.8174 N   0  0  0  0  0  0  0  0  0  0  0  0
   15.6369  -27.4428   -9.7868 C   0  0  0  0  0  0  0  0  0  0  0  0
   15.2165  -29.2719   -7.1217 C   0  0  0  0  0  0  0  0  0  0  0  0
   16.0018  -30.5140   -6.8468 N   0  0  0  0  0  0  0  0  0  0  0  0
   14.2175  -27.2864   -9.2586 N   0  0  0  0  0  0  0  0  0  0  0  0
   17.5002  -30.3985   -7.0509 C   0  0  0  0  0  0  0  0  0  0  0  0
   16.1216  -27.9277   -7.3999 C   0  0  0  0  0  0  0  0  0  0  0  0
   17.7745  -30.2126   -5.5563 C   0  0  0  0  0  0  0  0  0  0  0  0
   16.3418  -30.5336   -5.3706 C   0  0  0  0  0  0  0  0  0  0  0  0
   13.4943  -28.5584   -8.9804 C   0  0  0  0  0  0  0  0  0  0  0  0
   16.0207  -26.1474  -10.0149 O   0  0  0  0  0  0  0  0  0  0  0  0
   17.0540  -26.0946  -10.9435 C   0  0  0  0  0  0  0  0  0  0  0  0
   14.3955  -29.6683   -8.3930 C   0  0  0  0  0  0  0  0  0  0  0  0
   18.3662  -26.0668  -10.1892 C   0  0  0  0  0  0  0  0  0  0  0  0
   18.7716  -25.1761   -9.2409 C   0  0  0  0  0  0  0  0  0  0  0  0
   17.9273  -24.0948   -8.6079 C   0  0  0  0  0  0  0  0  0  0  0  0
   16.2240  -25.6803  -13.6229 C   0  0  0  0  0  0  0  0  0  0  0  0
   15.5071  -24.2201  -13.4190 C   0  0  0  0  0  0  0  0  0  0  0  0
   18.8631  -22.9080   -8.2621 C   0  0  0  0  0  0  0  0  0  0  0  0
   18.6246  -22.1135   -6.9550 C   0  0  0  0  0  0  0  0  0  0  0  0
   16.4622  -23.6680   -9.0193 C   0  0  0  0  0  0  0  0  0  0  0  0
   15.3753  -26.7324   -7.1256 N   0  0  0  0  0  0  0  0  0  0  0  0
   17.3102  -22.2763  -14.0803 C   0  0  0  0  0  0  0  0  0  0  0  0
   16.6681  -26.5799  -12.3667 C   0  0  0  0  0  0  0  0  0  0  0  0
   18.2527  -23.3449  -14.6345 C   0  0  0  0  0  0  0  0  0  0  0  0
   17.0670  -21.9515   -6.6499 C   0  0  0  0  0  0  0  0  0  0  0  0
   16.2459  -22.8850  -13.1110 C   0  0  0  0  0  0  0  0  0  0  0  0
  2  1  1  0
  4  3  1  0
  5  2  1  0
  6  4  1  0
  7  1  1  0
  7  3  1  0
  8  6  1  0
  9  4  1  0
  9  8  1  0
 10  5  1  0
 11  2  1  0
 12 11  1  0
 13  3  1  0
 13 10  1  0
 14 12  1  0
 15 14  2  3
 16 15  1  0
 18 17  1  0
 19 16  1  0
 20 19  1  0
 21 16  1  0
 22  7  1  0
 24 12  1  0
 24 17  1  0
 25 23  1  0
 26 20  1  0
 27 18  1  0
 27 23  1  0
M  END
$$$$
