
     RDKit          3D

 24 28  0  0  0  0  0  0  0  0999 V2000
   18.7027  -18.7496   -6.2781 F   0  0  0  0  0  0  0  0  0  0  0  0
   16.8346  -20.3370   -5.6086 C   0  0  0  0  0  0  0  0  0  0  0  0
   16.3222  -19.0395   -5.7605 F   0  0  0  0  0  0  0  0  0  0  0  0
   22.6877  -18.4769   -1.1430 F   0  0  0  0  0  0  0  0  0  0  0  0
   18.4566  -20.0224   -5.7205 C   0  0  0  0  0  0  0  0  0  0  0  0
   18.9136  -20.8795   -6.7426 F   0  0  0  0  0  0  0  0  0  0  0  0
   19.1905  -20.1758   -4.2576 C   0  0  0  0  0  0  0  0  0  0  0  0
   20.6601  -19.9121   -4.0454 C   0  0  0  0  0  0  0  0  0  0  0  0
   17.4950  -22.9451   -3.4994 F   0  0  0  0  0  0  0  0  0  0  0  0
   20.8655  -21.2951   -3.6534 O   0  0  0  0  0  0  0  0  0  0  0  0
   19.3371  -20.0655   -1.6145 C   0  0  0  0  0  0  0  0  0  0  0  0
   21.1904  -18.8980   -2.9115 C   0  0  0  0  0  0  0  0  0  0  0  0
   23.0262  -20.5663   -2.1588 C   0  0  0  0  0  0  0  0  0  0  0  0
   20.7348  -19.7962   -0.1099 C   0  0  0  0  0  0  0  0  0  0  0  0
   20.6613  -17.4629   -2.6649 C   0  0  0  0  0  0  0  0  0  0  0  0
   21.8748  -19.5589   -1.5246 C   0  0  0  0  0  0  0  0  0  0  0  0
   20.8306  -21.0470    0.6532 C   0  0  0  0  0  0  0  0  0  0  0  0
   17.8855  -21.3576   -1.1334 C   0  0  0  0  0  0  0  0  0  0  0  0
   20.3364  -21.4883   -0.7539 C   0  0  0  0  0  0  0  0  0  0  0  0
   21.6825  -17.6160   -3.6635 C   0  0  0  0  0  0  0  0  0  0  0  0
   18.4168  -19.5602   -2.9608 C   0  0  0  0  0  0  0  0  0  0  0  0
   18.6198  -22.4518   -2.7548 C   0  0  0  0  0  0  0  0  0  0  0  0
   18.9849  -20.0713   -0.3977 C   0  0  0  0  0  0  0  0  0  0  0  0
   19.5408  -21.6985   -3.9780 C   0  0  0  0  0  0  0  0  0  0  0  0
  3  2  1  0
  5  1  1  0
  5  2  1  0
  6  5  1  0
  7  5  1  0
  8  7  1  0
 10  8  1  0
 12  8  1  0
 15 12  1  0
 16  4  1  0
 16 12  1  0
 16 13  1  0
 16 14  1  0
 17 14  1  0
 19 11  1  0
 19 17  1  0
 20 12  1  0
 20 15  1  0
 21  7  1  0
 21 11  1  0
 22  9  1  0
 22 18  1  0
 23 11  1  0
 23 14  1  0
 23 18  1  0
 24  7  1  0
 24 10  1  0
 24 22  1  0
M  END
$$$$
