
     RDKit          3D

 24 27  0  0  0  0  0  0  0  0999 V2000
   15.8671  -29.7932  -13.6171 N   0  0  0  0  0  0  0  0  0  0  0  0
   14.2650  -27.9358  -12.9209 C   0  0  0  0  0  0  0  0  0  0  0  0
   13.5439  -27.7927  -14.2084 N   0  0  0  0  0  0  0  0  0  0  0  0
   13.8936  -28.1179  -15.6169 C   0  0  0  0  0  0  0  0  0  0  0  0
   16.1609  -28.6556  -11.3406 C   0  0  0  0  0  0  0  0  0  0  0  0
   14.5736  -29.3906  -15.8569 N   0  0  0  0  0  2  0  0  0  0  0  0
   13.6653  -30.5073  -15.5723 C   0  0  0  0  0  0  0  0  0  0  0  0
   15.3068  -28.9241  -12.5835 C   0  0  0  0  0  0  0  0  0  0  0  0
   13.9687  -32.3204  -17.3262 N   0  0  0  0  0  0  0  0  0  0  0  0
    9.5379  -30.6808  -18.5444 Cl  0  0  0  0  0  0  0  0  0  0  0  0
   13.8972  -29.2061  -12.2438 N   0  0  0  0  0  0  0  0  0  0  0  0
   11.0583  -29.7528  -18.4668 C   0  0  0  0  0  0  0  0  0  0  0  0
   12.8740  -27.7271  -16.5853 N   0  0  0  0  0  2  0  0  0  0  0  0
   12.5873  -32.1771  -17.6237 N   0  0  0  0  0  0  0  0  0  0  0  0
   12.8032  -30.4504  -15.5080 S   0  0  0  0  0  4  0  0  0  0  0  0
   13.4234  -29.5644  -19.3470 C   0  0  0  0  0  0  0  0  0  0  0  0
   11.0943  -34.7628   -6.8350 I   0  0  0  0  0  0  0  0  0  0  0  0
   14.2678  -31.8701  -15.9488 C   0  0  0  0  0  0  0  0  0  0  0  0
   11.1922  -35.6393   -8.6715 O   0  0  0  0  0  0  0  0  0  0  0  0
   14.5564  -27.0145  -14.9915 C   0  0  0  0  0  0  0  0  0  0  0  0
   11.8903  -33.4344  -17.2887 C   0  0  0  0  0  0  0  0  0  0  0  0
   12.1338  -30.3834  -19.3699 C   0  0  0  0  0  0  0  0  0  0  0  0
   10.8888  -33.2048  -16.3406 O   0  0  0  0  0  0  0  0  0  0  0  0
   12.3909  -31.8726  -19.0549 C   0  0  0  0  0  0  0  0  0  0  0  0
  3  2  1  0
  4  3  1  0
  6  4  1  0
  7  6  1  0
  8  1  1  0
  8  2  1  0
  8  5  1  0
 11  2  1  0
 11  8  1  0
 12 10  1  0
 13  4  1  0
 14  9  1  0
 15  7  1  0
 15 12  1  0
 18  7  1  0
 18  9  1  0
 19 15  1  0
 19 17  1  0
 20  3  1  0
 20  4  1  0
 21 14  1  0
 22 12  1  0
 22 16  1  0
 23 21  1  0
 24 14  1  0
 24 15  1  0
 24 22  1  0
M  RAD  2   6   2  13   2
M  END
$$$$
